<?xml version="1.0" encoding="UTF-8"?>

<!-- generated on 2024-11-17 09:48:59 by Eclipse SUMO netedit Version 1.21.0
-->

<routes xmlns:xsi="http://www.w3.org/2001/XMLSchema-instance" xsi:noNamespaceSchemaLocation="http://sumo.dlr.de/xsd/routes_file.xsd">
    <!-- VTypes -->
    <vType id="car" length="5.00" maxSpeed="10.00" vClass="passenger" accel="3.5" decel="2.2" sigma="0.8"/>
    <vType id="ev" length="7.00" maxSpeed="20.00" speedFactor="normc(2.00,0.00)" vClass="emergency" guiShape="emergency" minGapLat="0.20" accel="5.5" decel="2.2" sigma="0.8"/>
    <!-- Vehicles, persons and containers (sorted by depart) -->
    <flow id="flow_0" begin="0.00" color="233,59,229" from="E32" to="E38" via="E8 E7 E14" end="3600.00" vehsPerHour="1800"/>
    <flow id="flow_1" begin="0.00" color="4,168,159" from="-E0" to="E9" via="-E38 -E14 -E11 -E36 E6 -E5" end="3600.00" vehsPerHour="1800"/>
    <flow id="flow_3" begin="0.00" color="22,166,165" from="-E34" to="E15" via="E1 E5 E7 E16" end="3600.00" vehsPerHour="1800"/>
    <flow id="flow_4" begin="0.00" color="210,230,191" from="-E18" to="-E33" via="-E17 -E4 -E1" end="3600.00" vehsPerHour="1800"/>
</routes>
