<?xml version="1.0" encoding="UTF-8"?>

<!-- generated on 2024-11-19 15:39:05 by Eclipse SUMO netedit Version 1.21.0
-->

<routes xmlns:xsi="http://www.w3.org/2001/XMLSchema-instance" xsi:noNamespaceSchemaLocation="http://sumo.dlr.de/xsd/routes_file.xsd">
    <!-- Vehicles, persons and containers (sorted by depart) -->
    <flow id="flow_0" begin="0.00" color="233,59,229" from="eS_P" to="E0" via="eB_I eC_D eA_B E15" end="3600.00" vehsPerHour="400"/>
    <flow id="flow_1" begin="0.00" color="4,168,159" from="-E0" to="-E32" via="eI_B -E16 eF_I E55" end="3600.00" vehsPerHour="400"/>
    <flow id="flow_2" begin="0.00" color="22,166,165" from="eT_U" to="-E39" via="eA_H eD_I eC_D eI_F" end="3600.00" vehsPerHour="330"/>
    <flow id="flow_3" begin="0.00" color="210,230,191" from="eG_F" to="E34" via="eE_D eF_I eI_H eK_O" end="3600.00" vehsPerHour="400"/>
</routes>
