<?xml version="1.0" encoding="UTF-8"?>

<!-- generated on 2024-11-17 10:01:08 by Eclipse SUMO netedit Version 1.21.0
<neteditConfiguration xmlns:xsi="http://www.w3.org/2001/XMLSchema-instance" xsi:noNamespaceSchemaLocation="http://sumo.dlr.de/xsd/neteditConfiguration.xsd">

    <input>
        <sumo-net-file value="src/includes/sumo/3x3/network.net.xml"/>
    </input>

    <output>
        <output-file value="src/includes/sumo/3x3/network.net.xml"/>
    </output>

    <processing>
        <geometry.min-radius.fix.railways value="false"/>
        <geometry.max-grade.fix value="false"/>
        <offset.disable-normalization value="true"/>
        <lefthand value="1"/>
    </processing>

    <junctions>
        <no-turnarounds value="true"/>
        <junctions.corner-detail value="5"/>
        <junctions.limit-turn-speed value="5.50"/>
        <rectangular-lane-cut value="0"/>
    </junctions>

    <pedestrian>
        <walkingareas value="0"/>
    </pedestrian>

</neteditConfiguration>
-->

<net version="1.20" junctionCornerDetail="5" lefthand="true" limitTurnSpeed="5.50" xmlns:xsi="http://www.w3.org/2001/XMLSchema-instance" xsi:noNamespaceSchemaLocation="http://sumo.dlr.de/xsd/net_file.xsd">

    <location netOffset="750.00,750.00" convBoundary="1000.00,200.00,1600.00,800.00" origBoundary="-750.00,-750.00,750.00,750.00" projParameter="!"/>

    <type id="4L13" priority="-1" numLanes="4" speed="13.89"/>

    <edge id=":J1_0" function="internal">
        <lane id=":J1_0_0" index="0" speed="6.51" length="9.03" shape="1595.20,589.60 1594.85,592.05 1593.80,593.80 1592.05,594.85 1589.60,595.20"/>
    </edge>
    <edge id=":J1_1" function="internal">
        <lane id=":J1_1_0" index="0" speed="13.89" length="20.80" shape="1595.20,589.60 1595.20,610.40"/>
        <lane id=":J1_1_1" index="1" speed="13.89" length="20.80" shape="1598.40,589.60 1598.40,610.40"/>
    </edge>
    <edge id=":J1_3" function="internal">
        <lane id=":J1_3_0" index="0" speed="13.89" length="20.80" shape="1604.80,610.40 1604.80,589.60"/>
        <lane id=":J1_3_1" index="1" speed="13.89" length="20.80" shape="1601.60,610.40 1601.60,589.60"/>
    </edge>
    <edge id=":J1_5" function="internal">
        <lane id=":J1_5_0" index="0" speed="9.26" length="5.01" shape="1601.60,610.40 1600.89,605.44"/>
    </edge>
    <edge id=":J1_8" function="internal">
        <lane id=":J1_8_0" index="0" speed="9.26" length="14.34" shape="1600.89,605.44 1600.85,605.15 1598.60,601.40 1594.85,599.15 1589.60,598.40"/>
    </edge>
    <edge id=":J1_6" function="internal">
        <lane id=":J1_6_0" index="0" speed="6.51" length="9.03" shape="1589.60,604.80 1592.05,605.15 1593.80,606.20 1594.85,607.95 1595.20,610.40"/>
    </edge>
    <edge id=":J1_7" function="internal">
        <lane id=":J1_7_0" index="0" speed="9.26" length="19.35" shape="1589.60,601.60 1594.85,600.85 1598.60,598.60 1600.85,594.85 1601.60,589.60"/>
    </edge>
    <edge id=":J10_0" function="internal">
        <lane id=":J10_0_0" index="0" speed="13.89" length="20.80" shape="1210.40,195.20 1189.60,195.20"/>
        <lane id=":J10_0_1" index="1" speed="13.89" length="20.80" shape="1210.40,198.40 1189.60,198.40"/>
    </edge>
    <edge id=":J10_2" function="internal">
        <lane id=":J10_2_0" index="0" speed="9.26" length="5.01" shape="1210.40,198.40 1205.44,199.11"/>
    </edge>
    <edge id=":J10_8" function="internal">
        <lane id=":J10_8_0" index="0" speed="9.26" length="14.34" shape="1205.44,199.11 1205.15,199.15 1201.40,201.40 1199.15,205.15 1198.40,210.40"/>
    </edge>
    <edge id=":J10_3" function="internal">
        <lane id=":J10_3_0" index="0" speed="6.51" length="9.03" shape="1204.80,210.40 1205.15,207.95 1206.20,206.20 1207.95,205.15 1210.40,204.80"/>
    </edge>
    <edge id=":J10_4" function="internal">
        <lane id=":J10_4_0" index="0" speed="9.26" length="19.35" shape="1201.60,210.40 1200.85,205.15 1198.60,201.40 1194.85,199.15 1189.60,198.40"/>
    </edge>
    <edge id=":J10_5" function="internal">
        <lane id=":J10_5_0" index="0" speed="6.51" length="9.03" shape="1189.60,204.80 1192.05,205.15 1193.80,206.20 1194.85,207.95 1195.20,210.40"/>
    </edge>
    <edge id=":J10_6" function="internal">
        <lane id=":J10_6_0" index="0" speed="13.89" length="20.80" shape="1189.60,204.80 1210.40,204.80"/>
        <lane id=":J10_6_1" index="1" speed="13.89" length="20.80" shape="1189.60,201.60 1210.40,201.60"/>
    </edge>
    <edge id=":J11_0" function="internal">
        <lane id=":J11_0_0" index="0" speed="6.51" length="9.03" shape="1195.20,589.60 1194.85,592.05 1193.80,593.80 1192.05,594.85 1189.60,595.20"/>
    </edge>
    <edge id=":J11_1" function="internal">
        <lane id=":J11_1_0" index="0" speed="13.89" length="20.80" shape="1195.20,589.60 1195.20,610.40"/>
        <lane id=":J11_1_1" index="1" speed="13.89" length="20.80" shape="1198.40,589.60 1198.40,610.40"/>
    </edge>
    <edge id=":J11_3" function="internal">
        <lane id=":J11_3_0" index="0" speed="9.26" length="5.01" shape="1198.40,589.60 1199.11,594.56"/>
    </edge>
    <edge id=":J11_16" function="internal">
        <lane id=":J11_16_0" index="0" speed="9.26" length="14.34" shape="1199.11,594.56 1199.15,594.85 1201.40,598.60 1205.15,600.85 1210.40,601.60"/>
    </edge>
    <edge id=":J11_4" function="internal">
        <lane id=":J11_4_0" index="0" speed="6.51" length="9.03" shape="1210.40,595.20 1207.95,594.85 1206.20,593.80 1205.15,592.05 1204.80,589.60"/>
    </edge>
    <edge id=":J11_5" function="internal">
        <lane id=":J11_5_0" index="0" speed="13.89" length="20.80" shape="1210.40,595.20 1189.60,595.20"/>
        <lane id=":J11_5_1" index="1" speed="13.89" length="20.80" shape="1210.40,598.40 1189.60,598.40"/>
    </edge>
    <edge id=":J11_7" function="internal">
        <lane id=":J11_7_0" index="0" speed="9.26" length="5.01" shape="1210.40,598.40 1205.44,599.11"/>
    </edge>
    <edge id=":J11_17" function="internal">
        <lane id=":J11_17_0" index="0" speed="9.26" length="14.34" shape="1205.44,599.11 1205.15,599.15 1201.40,601.40 1199.15,605.15 1198.40,610.40"/>
    </edge>
    <edge id=":J11_8" function="internal">
        <lane id=":J11_8_0" index="0" speed="6.51" length="9.03" shape="1204.80,610.40 1205.15,607.95 1206.20,606.20 1207.95,605.15 1210.40,604.80"/>
    </edge>
    <edge id=":J11_9" function="internal">
        <lane id=":J11_9_0" index="0" speed="13.89" length="20.80" shape="1204.80,610.40 1204.80,589.60"/>
        <lane id=":J11_9_1" index="1" speed="13.89" length="20.80" shape="1201.60,610.40 1201.60,589.60"/>
    </edge>
    <edge id=":J11_11" function="internal">
        <lane id=":J11_11_0" index="0" speed="9.26" length="5.01" shape="1201.60,610.40 1200.89,605.44"/>
    </edge>
    <edge id=":J11_18" function="internal">
        <lane id=":J11_18_0" index="0" speed="9.26" length="14.34" shape="1200.89,605.44 1200.85,605.15 1198.60,601.40 1194.85,599.15 1189.60,598.40"/>
    </edge>
    <edge id=":J11_12" function="internal">
        <lane id=":J11_12_0" index="0" speed="6.51" length="9.03" shape="1189.60,604.80 1192.05,605.15 1193.80,606.20 1194.85,607.95 1195.20,610.40"/>
    </edge>
    <edge id=":J11_13" function="internal">
        <lane id=":J11_13_0" index="0" speed="13.89" length="20.80" shape="1189.60,604.80 1210.40,604.80"/>
        <lane id=":J11_13_1" index="1" speed="13.89" length="20.80" shape="1189.60,601.60 1210.40,601.60"/>
    </edge>
    <edge id=":J11_15" function="internal">
        <lane id=":J11_15_0" index="0" speed="9.26" length="5.01" shape="1189.60,601.60 1194.56,600.89"/>
    </edge>
    <edge id=":J11_19" function="internal">
        <lane id=":J11_19_0" index="0" speed="9.26" length="14.34" shape="1194.56,600.89 1194.85,600.85 1198.60,598.60 1200.85,594.85 1201.60,589.60"/>
    </edge>
    <edge id=":J12_0" function="internal">
        <lane id=":J12_0_0" index="0" speed="13.89" length="20.80" shape="995.20,589.60 995.20,610.40"/>
        <lane id=":J12_0_1" index="1" speed="13.89" length="20.80" shape="998.40,589.60 998.40,610.40"/>
    </edge>
    <edge id=":J12_2" function="internal">
        <lane id=":J12_2_0" index="0" speed="9.26" length="5.01" shape="998.40,589.60 999.11,594.56"/>
    </edge>
    <edge id=":J12_8" function="internal">
        <lane id=":J12_8_0" index="0" speed="9.26" length="14.34" shape="999.11,594.56 999.15,594.85 1001.40,598.60 1005.15,600.85 1010.40,601.60"/>
    </edge>
    <edge id=":J12_3" function="internal">
        <lane id=":J12_3_0" index="0" speed="6.51" length="9.03" shape="1010.40,595.20 1007.95,594.85 1006.20,593.80 1005.15,592.05 1004.80,589.60"/>
    </edge>
    <edge id=":J12_4" function="internal">
        <lane id=":J12_4_0" index="0" speed="9.26" length="19.35" shape="1010.40,598.40 1005.15,599.15 1001.40,601.40 999.15,605.15 998.40,610.40"/>
    </edge>
    <edge id=":J12_5" function="internal">
        <lane id=":J12_5_0" index="0" speed="6.51" length="9.03" shape="1004.80,610.40 1005.15,607.95 1006.20,606.20 1007.95,605.15 1010.40,604.80"/>
    </edge>
    <edge id=":J12_6" function="internal">
        <lane id=":J12_6_0" index="0" speed="13.89" length="20.80" shape="1004.80,610.40 1004.80,589.60"/>
        <lane id=":J12_6_1" index="1" speed="13.89" length="20.80" shape="1001.60,610.40 1001.60,589.60"/>
    </edge>
    <edge id=":J13_0" function="internal">
        <lane id=":J13_0_0" index="0" speed="8.96" length="18.06" shape="995.20,793.60 995.90,798.50 998.00,802.00 1001.50,804.10 1006.40,804.80"/>
        <lane id=":J13_0_1" index="1" speed="7.66" length="12.90" shape="998.40,793.60 998.90,797.10 1000.40,799.60 1002.90,801.10 1006.40,801.60"/>
    </edge>
    <edge id=":J13_2" function="internal">
        <lane id=":J13_2_0" index="0" speed="3.90" length="2.58" shape="1006.40,795.20 1005.70,795.10 1005.20,794.80 1004.90,794.30 1004.80,793.60"/>
        <lane id=":J13_2_1" index="1" speed="6.08" length="7.74" shape="1006.40,798.40 1004.30,798.10 1002.80,797.20 1001.90,795.70 1001.60,793.60"/>
    </edge>
    <edge id=":J14_0" function="internal">
        <lane id=":J14_0_0" index="0" speed="3.90" length="2.58" shape="1595.20,793.60 1595.10,794.30 1594.80,794.80 1594.30,795.10 1593.60,795.20"/>
        <lane id=":J14_0_1" index="1" speed="6.08" length="7.74" shape="1598.40,793.60 1598.10,795.70 1597.20,797.20 1595.70,798.10 1593.60,798.40"/>
    </edge>
    <edge id=":J14_2" function="internal">
        <lane id=":J14_2_0" index="0" speed="8.96" length="18.06" shape="1593.60,804.80 1598.50,804.10 1602.00,802.00 1604.10,798.50 1604.80,793.60"/>
        <lane id=":J14_2_1" index="1" speed="7.66" length="12.90" shape="1593.60,801.60 1597.10,801.10 1599.60,799.60 1601.10,797.10 1601.60,793.60"/>
    </edge>
    <edge id=":J15_0" function="internal">
        <lane id=":J15_0_0" index="0" speed="6.51" length="9.03" shape="1195.20,789.60 1194.85,792.05 1193.80,793.80 1192.05,794.85 1189.60,795.20"/>
    </edge>
    <edge id=":J15_1" function="internal">
        <lane id=":J15_1_0" index="0" speed="9.26" length="19.35" shape="1198.40,789.60 1199.15,794.85 1201.40,798.60 1205.15,800.85 1210.40,801.60"/>
    </edge>
    <edge id=":J15_2" function="internal">
        <lane id=":J15_2_0" index="0" speed="6.51" length="9.03" shape="1210.40,795.20 1207.95,794.85 1206.20,793.80 1205.15,792.05 1204.80,789.60"/>
    </edge>
    <edge id=":J15_3" function="internal">
        <lane id=":J15_3_0" index="0" speed="13.89" length="20.80" shape="1210.40,795.20 1189.60,795.20"/>
        <lane id=":J15_3_1" index="1" speed="13.89" length="20.80" shape="1210.40,798.40 1189.60,798.40"/>
    </edge>
    <edge id=":J15_5" function="internal">
        <lane id=":J15_5_0" index="0" speed="13.89" length="20.80" shape="1189.60,804.80 1210.40,804.80"/>
        <lane id=":J15_5_1" index="1" speed="13.89" length="20.80" shape="1189.60,801.60 1210.40,801.60"/>
    </edge>
    <edge id=":J15_7" function="internal">
        <lane id=":J15_7_0" index="0" speed="9.26" length="5.01" shape="1189.60,801.60 1194.56,800.89"/>
    </edge>
    <edge id=":J15_8" function="internal">
        <lane id=":J15_8_0" index="0" speed="9.26" length="14.34" shape="1194.56,800.89 1194.85,800.85 1198.60,798.60 1200.85,794.85 1201.60,789.60"/>
    </edge>
    <edge id=":J16_0" function="internal">
        <lane id=":J16_0_0" index="0" speed="6.51" length="9.03" shape="1395.20,589.60 1394.85,592.05 1393.80,593.80 1392.05,594.85 1389.60,595.20"/>
    </edge>
    <edge id=":J16_1" function="internal">
        <lane id=":J16_1_0" index="0" speed="13.89" length="20.80" shape="1395.20,589.60 1395.20,610.40"/>
        <lane id=":J16_1_1" index="1" speed="13.89" length="20.80" shape="1398.40,589.60 1398.40,610.40"/>
    </edge>
    <edge id=":J16_3" function="internal">
        <lane id=":J16_3_0" index="0" speed="9.26" length="5.01" shape="1398.40,589.60 1399.11,594.56"/>
    </edge>
    <edge id=":J16_16" function="internal">
        <lane id=":J16_16_0" index="0" speed="9.26" length="14.34" shape="1399.11,594.56 1399.15,594.85 1401.40,598.60 1405.15,600.85 1410.40,601.60"/>
    </edge>
    <edge id=":J16_4" function="internal">
        <lane id=":J16_4_0" index="0" speed="6.51" length="9.03" shape="1410.40,595.20 1407.95,594.85 1406.20,593.80 1405.15,592.05 1404.80,589.60"/>
    </edge>
    <edge id=":J16_5" function="internal">
        <lane id=":J16_5_0" index="0" speed="13.89" length="20.80" shape="1410.40,595.20 1389.60,595.20"/>
        <lane id=":J16_5_1" index="1" speed="13.89" length="20.80" shape="1410.40,598.40 1389.60,598.40"/>
    </edge>
    <edge id=":J16_7" function="internal">
        <lane id=":J16_7_0" index="0" speed="9.26" length="5.01" shape="1410.40,598.40 1405.44,599.11"/>
    </edge>
    <edge id=":J16_17" function="internal">
        <lane id=":J16_17_0" index="0" speed="9.26" length="14.34" shape="1405.44,599.11 1405.15,599.15 1401.40,601.40 1399.15,605.15 1398.40,610.40"/>
    </edge>
    <edge id=":J16_8" function="internal">
        <lane id=":J16_8_0" index="0" speed="6.51" length="9.03" shape="1404.80,610.40 1405.15,607.95 1406.20,606.20 1407.95,605.15 1410.40,604.80"/>
    </edge>
    <edge id=":J16_9" function="internal">
        <lane id=":J16_9_0" index="0" speed="13.89" length="20.80" shape="1404.80,610.40 1404.80,589.60"/>
        <lane id=":J16_9_1" index="1" speed="13.89" length="20.80" shape="1401.60,610.40 1401.60,589.60"/>
    </edge>
    <edge id=":J16_11" function="internal">
        <lane id=":J16_11_0" index="0" speed="9.26" length="5.01" shape="1401.60,610.40 1400.89,605.44"/>
    </edge>
    <edge id=":J16_18" function="internal">
        <lane id=":J16_18_0" index="0" speed="9.26" length="14.34" shape="1400.89,605.44 1400.85,605.15 1398.60,601.40 1394.85,599.15 1389.60,598.40"/>
    </edge>
    <edge id=":J16_12" function="internal">
        <lane id=":J16_12_0" index="0" speed="6.51" length="9.03" shape="1389.60,604.80 1392.05,605.15 1393.80,606.20 1394.85,607.95 1395.20,610.40"/>
    </edge>
    <edge id=":J16_13" function="internal">
        <lane id=":J16_13_0" index="0" speed="13.89" length="20.80" shape="1389.60,604.80 1410.40,604.80"/>
        <lane id=":J16_13_1" index="1" speed="13.89" length="20.80" shape="1389.60,601.60 1410.40,601.60"/>
    </edge>
    <edge id=":J16_15" function="internal">
        <lane id=":J16_15_0" index="0" speed="9.26" length="5.01" shape="1389.60,601.60 1394.56,600.89"/>
    </edge>
    <edge id=":J16_19" function="internal">
        <lane id=":J16_19_0" index="0" speed="9.26" length="14.34" shape="1394.56,600.89 1394.85,600.85 1398.60,598.60 1400.85,594.85 1401.60,589.60"/>
    </edge>
    <edge id=":J17_0" function="internal">
        <lane id=":J17_0_0" index="0" speed="6.51" length="9.03" shape="1395.20,789.60 1394.85,792.05 1393.80,793.80 1392.05,794.85 1389.60,795.20"/>
    </edge>
    <edge id=":J17_1" function="internal">
        <lane id=":J17_1_0" index="0" speed="9.26" length="19.35" shape="1398.40,789.60 1399.15,794.85 1401.40,798.60 1405.15,800.85 1410.40,801.60"/>
    </edge>
    <edge id=":J17_2" function="internal">
        <lane id=":J17_2_0" index="0" speed="6.51" length="9.03" shape="1410.40,795.20 1407.95,794.85 1406.20,793.80 1405.15,792.05 1404.80,789.60"/>
    </edge>
    <edge id=":J17_3" function="internal">
        <lane id=":J17_3_0" index="0" speed="13.89" length="20.80" shape="1410.40,795.20 1389.60,795.20"/>
        <lane id=":J17_3_1" index="1" speed="13.89" length="20.80" shape="1410.40,798.40 1389.60,798.40"/>
    </edge>
    <edge id=":J17_5" function="internal">
        <lane id=":J17_5_0" index="0" speed="13.89" length="20.80" shape="1389.60,804.80 1410.40,804.80"/>
        <lane id=":J17_5_1" index="1" speed="13.89" length="20.80" shape="1389.60,801.60 1410.40,801.60"/>
    </edge>
    <edge id=":J17_7" function="internal">
        <lane id=":J17_7_0" index="0" speed="9.26" length="5.01" shape="1389.60,801.60 1394.56,800.89"/>
    </edge>
    <edge id=":J17_8" function="internal">
        <lane id=":J17_8_0" index="0" speed="9.26" length="14.34" shape="1394.56,800.89 1394.85,800.85 1398.60,798.60 1400.85,794.85 1401.60,789.60"/>
    </edge>
    <edge id=":J18_0" function="internal">
        <lane id=":J18_0_0" index="0" speed="6.51" length="9.03" shape="1395.20,389.60 1394.85,392.05 1393.80,393.80 1392.05,394.85 1389.60,395.20"/>
    </edge>
    <edge id=":J18_1" function="internal">
        <lane id=":J18_1_0" index="0" speed="13.89" length="20.80" shape="1395.20,389.60 1395.20,410.40"/>
        <lane id=":J18_1_1" index="1" speed="13.89" length="20.80" shape="1398.40,389.60 1398.40,410.40"/>
    </edge>
    <edge id=":J18_3" function="internal">
        <lane id=":J18_3_0" index="0" speed="9.26" length="5.01" shape="1398.40,389.60 1399.11,394.56"/>
    </edge>
    <edge id=":J18_16" function="internal">
        <lane id=":J18_16_0" index="0" speed="9.26" length="14.34" shape="1399.11,394.56 1399.15,394.85 1401.40,398.60 1405.15,400.85 1410.40,401.60"/>
    </edge>
    <edge id=":J18_4" function="internal">
        <lane id=":J18_4_0" index="0" speed="6.51" length="9.03" shape="1410.40,395.20 1407.95,394.85 1406.20,393.80 1405.15,392.05 1404.80,389.60"/>
    </edge>
    <edge id=":J18_5" function="internal">
        <lane id=":J18_5_0" index="0" speed="13.89" length="20.80" shape="1410.40,395.20 1389.60,395.20"/>
        <lane id=":J18_5_1" index="1" speed="13.89" length="20.80" shape="1410.40,398.40 1389.60,398.40"/>
    </edge>
    <edge id=":J18_7" function="internal">
        <lane id=":J18_7_0" index="0" speed="9.26" length="5.01" shape="1410.40,398.40 1405.44,399.11"/>
    </edge>
    <edge id=":J18_17" function="internal">
        <lane id=":J18_17_0" index="0" speed="9.26" length="14.34" shape="1405.44,399.11 1405.15,399.15 1401.40,401.40 1399.15,405.15 1398.40,410.40"/>
    </edge>
    <edge id=":J18_8" function="internal">
        <lane id=":J18_8_0" index="0" speed="6.51" length="9.03" shape="1404.80,410.40 1405.15,407.95 1406.20,406.20 1407.95,405.15 1410.40,404.80"/>
    </edge>
    <edge id=":J18_9" function="internal">
        <lane id=":J18_9_0" index="0" speed="13.89" length="20.80" shape="1404.80,410.40 1404.80,389.60"/>
        <lane id=":J18_9_1" index="1" speed="13.89" length="20.80" shape="1401.60,410.40 1401.60,389.60"/>
    </edge>
    <edge id=":J18_11" function="internal">
        <lane id=":J18_11_0" index="0" speed="9.26" length="5.01" shape="1401.60,410.40 1400.89,405.44"/>
    </edge>
    <edge id=":J18_18" function="internal">
        <lane id=":J18_18_0" index="0" speed="9.26" length="14.34" shape="1400.89,405.44 1400.85,405.15 1398.60,401.40 1394.85,399.15 1389.60,398.40"/>
    </edge>
    <edge id=":J18_12" function="internal">
        <lane id=":J18_12_0" index="0" speed="6.51" length="9.03" shape="1389.60,404.80 1392.05,405.15 1393.80,406.20 1394.85,407.95 1395.20,410.40"/>
    </edge>
    <edge id=":J18_13" function="internal">
        <lane id=":J18_13_0" index="0" speed="13.89" length="20.80" shape="1389.60,404.80 1410.40,404.80"/>
        <lane id=":J18_13_1" index="1" speed="13.89" length="20.80" shape="1389.60,401.60 1410.40,401.60"/>
    </edge>
    <edge id=":J18_15" function="internal">
        <lane id=":J18_15_0" index="0" speed="9.26" length="5.01" shape="1389.60,401.60 1394.56,400.89"/>
    </edge>
    <edge id=":J18_19" function="internal">
        <lane id=":J18_19_0" index="0" speed="9.26" length="14.34" shape="1394.56,400.89 1394.85,400.85 1398.60,398.60 1400.85,394.85 1401.60,389.60"/>
    </edge>
    <edge id=":J4_0" function="internal">
        <lane id=":J4_0_0" index="0" speed="13.89" length="20.80" shape="1410.40,195.20 1389.60,195.20"/>
        <lane id=":J4_0_1" index="1" speed="13.89" length="20.80" shape="1410.40,198.40 1389.60,198.40"/>
    </edge>
    <edge id=":J4_2" function="internal">
        <lane id=":J4_2_0" index="0" speed="9.26" length="5.01" shape="1410.40,198.40 1405.44,199.11"/>
    </edge>
    <edge id=":J4_8" function="internal">
        <lane id=":J4_8_0" index="0" speed="9.26" length="14.34" shape="1405.44,199.11 1405.15,199.15 1401.40,201.40 1399.15,205.15 1398.40,210.40"/>
    </edge>
    <edge id=":J4_3" function="internal">
        <lane id=":J4_3_0" index="0" speed="6.51" length="9.03" shape="1404.80,210.40 1405.15,207.95 1406.20,206.20 1407.95,205.15 1410.40,204.80"/>
    </edge>
    <edge id=":J4_4" function="internal">
        <lane id=":J4_4_0" index="0" speed="9.26" length="19.35" shape="1401.60,210.40 1400.85,205.15 1398.60,201.40 1394.85,199.15 1389.60,198.40"/>
    </edge>
    <edge id=":J4_5" function="internal">
        <lane id=":J4_5_0" index="0" speed="6.51" length="9.03" shape="1389.60,204.80 1392.05,205.15 1393.80,206.20 1394.85,207.95 1395.20,210.40"/>
    </edge>
    <edge id=":J4_6" function="internal">
        <lane id=":J4_6_0" index="0" speed="13.89" length="20.80" shape="1389.60,204.80 1410.40,204.80"/>
        <lane id=":J4_6_1" index="1" speed="13.89" length="20.80" shape="1389.60,201.60 1410.40,201.60"/>
    </edge>
    <edge id=":J5_0" function="internal">
        <lane id=":J5_0_0" index="0" speed="6.51" length="9.03" shape="1595.20,389.60 1594.85,392.05 1593.80,393.80 1592.05,394.85 1589.60,395.20"/>
    </edge>
    <edge id=":J5_1" function="internal">
        <lane id=":J5_1_0" index="0" speed="13.89" length="20.80" shape="1595.20,389.60 1595.20,410.40"/>
        <lane id=":J5_1_1" index="1" speed="13.89" length="20.80" shape="1598.40,389.60 1598.40,410.40"/>
    </edge>
    <edge id=":J5_3" function="internal">
        <lane id=":J5_3_0" index="0" speed="13.89" length="20.80" shape="1604.80,410.40 1604.80,389.60"/>
        <lane id=":J5_3_1" index="1" speed="13.89" length="20.80" shape="1601.60,410.40 1601.60,389.60"/>
    </edge>
    <edge id=":J5_5" function="internal">
        <lane id=":J5_5_0" index="0" speed="9.26" length="5.01" shape="1601.60,410.40 1600.89,405.44"/>
    </edge>
    <edge id=":J5_8" function="internal">
        <lane id=":J5_8_0" index="0" speed="9.26" length="14.34" shape="1600.89,405.44 1600.85,405.15 1598.60,401.40 1594.85,399.15 1589.60,398.40"/>
    </edge>
    <edge id=":J5_6" function="internal">
        <lane id=":J5_6_0" index="0" speed="6.51" length="9.03" shape="1589.60,404.80 1592.05,405.15 1593.80,406.20 1594.85,407.95 1595.20,410.40"/>
    </edge>
    <edge id=":J5_7" function="internal">
        <lane id=":J5_7_0" index="0" speed="9.26" length="19.35" shape="1589.60,401.60 1594.85,400.85 1598.60,398.60 1600.85,394.85 1601.60,389.60"/>
    </edge>
    <edge id=":J6_0" function="internal">
        <lane id=":J6_0_0" index="0" speed="8.96" length="18.06" shape="1604.80,206.40 1604.10,201.50 1602.00,198.00 1598.50,195.90 1593.60,195.20"/>
        <lane id=":J6_0_1" index="1" speed="7.66" length="12.90" shape="1601.60,206.40 1601.10,202.90 1599.60,200.40 1597.10,198.90 1593.60,198.40"/>
    </edge>
    <edge id=":J6_2" function="internal">
        <lane id=":J6_2_0" index="0" speed="3.90" length="2.58" shape="1593.60,204.80 1594.30,204.90 1594.80,205.20 1595.10,205.70 1595.20,206.40"/>
        <lane id=":J6_2_1" index="1" speed="6.08" length="7.74" shape="1593.60,201.60 1595.70,201.90 1597.20,202.80 1598.10,204.30 1598.40,206.40"/>
    </edge>
    <edge id=":J7_0" function="internal">
        <lane id=":J7_0_0" index="0" speed="6.51" length="9.03" shape="1195.20,389.60 1194.85,392.05 1193.80,393.80 1192.05,394.85 1189.60,395.20"/>
    </edge>
    <edge id=":J7_1" function="internal">
        <lane id=":J7_1_0" index="0" speed="13.89" length="20.80" shape="1195.20,389.60 1195.20,410.40"/>
        <lane id=":J7_1_1" index="1" speed="13.89" length="20.80" shape="1198.40,389.60 1198.40,410.40"/>
    </edge>
    <edge id=":J7_3" function="internal">
        <lane id=":J7_3_0" index="0" speed="9.26" length="5.01" shape="1198.40,389.60 1199.11,394.56"/>
    </edge>
    <edge id=":J7_16" function="internal">
        <lane id=":J7_16_0" index="0" speed="9.26" length="14.34" shape="1199.11,394.56 1199.15,394.85 1201.40,398.60 1205.15,400.85 1210.40,401.60"/>
    </edge>
    <edge id=":J7_4" function="internal">
        <lane id=":J7_4_0" index="0" speed="6.51" length="9.03" shape="1210.40,395.20 1207.95,394.85 1206.20,393.80 1205.15,392.05 1204.80,389.60"/>
    </edge>
    <edge id=":J7_5" function="internal">
        <lane id=":J7_5_0" index="0" speed="13.89" length="20.80" shape="1210.40,395.20 1189.60,395.20"/>
        <lane id=":J7_5_1" index="1" speed="13.89" length="20.80" shape="1210.40,398.40 1189.60,398.40"/>
    </edge>
    <edge id=":J7_7" function="internal">
        <lane id=":J7_7_0" index="0" speed="9.26" length="5.01" shape="1210.40,398.40 1205.44,399.11"/>
    </edge>
    <edge id=":J7_17" function="internal">
        <lane id=":J7_17_0" index="0" speed="9.26" length="14.34" shape="1205.44,399.11 1205.15,399.15 1201.40,401.40 1199.15,405.15 1198.40,410.40"/>
    </edge>
    <edge id=":J7_8" function="internal">
        <lane id=":J7_8_0" index="0" speed="6.51" length="9.03" shape="1204.80,410.40 1205.15,407.95 1206.20,406.20 1207.95,405.15 1210.40,404.80"/>
    </edge>
    <edge id=":J7_9" function="internal">
        <lane id=":J7_9_0" index="0" speed="13.89" length="20.80" shape="1204.80,410.40 1204.80,389.60"/>
        <lane id=":J7_9_1" index="1" speed="13.89" length="20.80" shape="1201.60,410.40 1201.60,389.60"/>
    </edge>
    <edge id=":J7_11" function="internal">
        <lane id=":J7_11_0" index="0" speed="9.26" length="5.01" shape="1201.60,410.40 1200.89,405.44"/>
    </edge>
    <edge id=":J7_18" function="internal">
        <lane id=":J7_18_0" index="0" speed="9.26" length="14.34" shape="1200.89,405.44 1200.85,405.15 1198.60,401.40 1194.85,399.15 1189.60,398.40"/>
    </edge>
    <edge id=":J7_12" function="internal">
        <lane id=":J7_12_0" index="0" speed="6.51" length="9.03" shape="1189.60,404.80 1192.05,405.15 1193.80,406.20 1194.85,407.95 1195.20,410.40"/>
    </edge>
    <edge id=":J7_13" function="internal">
        <lane id=":J7_13_0" index="0" speed="13.89" length="20.80" shape="1189.60,404.80 1210.40,404.80"/>
        <lane id=":J7_13_1" index="1" speed="13.89" length="20.80" shape="1189.60,401.60 1210.40,401.60"/>
    </edge>
    <edge id=":J7_15" function="internal">
        <lane id=":J7_15_0" index="0" speed="9.26" length="5.01" shape="1189.60,401.60 1194.56,400.89"/>
    </edge>
    <edge id=":J7_19" function="internal">
        <lane id=":J7_19_0" index="0" speed="9.26" length="14.34" shape="1194.56,400.89 1194.85,400.85 1198.60,398.60 1200.85,394.85 1201.60,389.60"/>
    </edge>
    <edge id=":J8_0" function="internal">
        <lane id=":J8_0_0" index="0" speed="13.89" length="20.80" shape="995.20,389.60 995.20,410.40"/>
        <lane id=":J8_0_1" index="1" speed="13.89" length="20.80" shape="998.40,389.60 998.40,410.40"/>
    </edge>
    <edge id=":J8_2" function="internal">
        <lane id=":J8_2_0" index="0" speed="9.26" length="5.01" shape="998.40,389.60 999.11,394.56"/>
    </edge>
    <edge id=":J8_8" function="internal">
        <lane id=":J8_8_0" index="0" speed="9.26" length="14.34" shape="999.11,394.56 999.15,394.85 1001.40,398.60 1005.15,400.85 1010.40,401.60"/>
    </edge>
    <edge id=":J8_3" function="internal">
        <lane id=":J8_3_0" index="0" speed="6.51" length="9.03" shape="1010.40,395.20 1007.95,394.85 1006.20,393.80 1005.15,392.05 1004.80,389.60"/>
    </edge>
    <edge id=":J8_4" function="internal">
        <lane id=":J8_4_0" index="0" speed="9.26" length="19.35" shape="1010.40,398.40 1005.15,399.15 1001.40,401.40 999.15,405.15 998.40,410.40"/>
    </edge>
    <edge id=":J8_5" function="internal">
        <lane id=":J8_5_0" index="0" speed="6.51" length="9.03" shape="1004.80,410.40 1005.15,407.95 1006.20,406.20 1007.95,405.15 1010.40,404.80"/>
    </edge>
    <edge id=":J8_6" function="internal">
        <lane id=":J8_6_0" index="0" speed="13.89" length="20.80" shape="1004.80,410.40 1004.80,389.60"/>
        <lane id=":J8_6_1" index="1" speed="13.89" length="20.80" shape="1001.60,410.40 1001.60,389.60"/>
    </edge>
    <edge id=":J9_0" function="internal">
        <lane id=":J9_0_0" index="0" speed="8.96" length="18.06" shape="1006.40,195.20 1001.50,195.90 998.00,198.00 995.90,201.50 995.20,206.40"/>
        <lane id=":J9_0_1" index="1" speed="7.66" length="12.90" shape="1006.40,198.40 1002.90,198.90 1000.40,200.40 998.90,202.90 998.40,206.40"/>
    </edge>
    <edge id=":J9_2" function="internal">
        <lane id=":J9_2_0" index="0" speed="3.90" length="2.58" shape="1004.80,206.40 1004.90,205.70 1005.20,205.20 1005.70,204.90 1006.40,204.80"/>
        <lane id=":J9_2_1" index="1" speed="6.08" length="7.74" shape="1001.60,206.40 1001.90,204.30 1002.80,202.80 1004.30,201.90 1006.40,201.60"/>
    </edge>

    <edge id="-E0" from="J6" to="J4" priority="-1">
        <lane id="-E0_0" index="0" speed="13.89" length="183.20" shape="1593.60,195.20 1410.40,195.20"/>