<?xml version="1.0" encoding="UTF-8"?>

<!-- generated on 2024-11-16 15:29:31 by Eclipse SUMO netedit Version 1.14.1
<configuration xmlns:xsi="http://www.w3.org/2001/XMLSchema-instance" xsi:noNamespaceSchemaLocation="http://sumo.dlr.de/xsd/netconvertConfiguration.xsd">

    <input>
        <sumo-net-file value=".\network.net.xml"/>
    </input>

    <output>
        <output-file value=".\network.net.xml"/>
    </output>

    <processing>
        <geometry.min-radius.fix.railways value="false"/>
        <geometry.max-grade.fix value="false"/>
        <offset.disable-normalization value="true"/>
        <lefthand value="true"/>
    </processing>

    <junctions>
        <no-turnarounds value="true"/>
        <junctions.corner-detail value="5"/>
        <junctions.limit-turn-speed value="5.5"/>
        <rectangular-lane-cut value="false"/>
    </junctions>

    <pedestrian>
        <walkingareas value="false"/>
    </pedestrian>

</configuration>
-->

<net version="1.9" junctionCornerDetail="5" lefthand="true" limitTurnSpeed="5.50" xmlns:xsi="http://www.w3.org/2001/XMLSchema-instance" xsi:noNamespaceSchemaLocation="http://sumo.dlr.de/xsd/net_file.xsd">

    <location netOffset="750.00,750.00" convBoundary="1300.00,400.00,1600.00,700.00" origBoundary="-750.00,-750.00,750.00,750.00" projParameter="!"/>

    <type id="4L13" priority="-1" numLanes="4" speed="13.89"/>

    <edge id=":A_0" function="internal">
        <lane id=":A_0_0" index="0" speed="8.96" length="18.06" shape="1295.20,693.60 1295.90,698.50 1298.00,702.00 1301.50,704.10 1306.40,704.80"/>
        <lane id=":A_0_1" index="1" speed="7.66" length="12.90" shape="1298.40,693.60 1298.90,697.10 1300.40,699.60 1302.90,701.10 1306.40,701.60"/>
    </edge>
    <edge id=":A_2" function="internal">
        <lane id=":A_2_0" index="0" speed="3.90" length="2.58" shape="1306.40,695.20 1305.70,695.10 1305.20,694.80 1304.90,694.30 1304.80,693.60"/>
        <lane id=":A_2_1" index="1" speed="6.08" length="7.74" shape="1306.40,698.40 1304.30,698.10 1302.80,697.20 1301.90,695.70 1301.60,693.60"/>
    </edge>
    <edge id=":B_0" function="internal">
        <lane id=":B_0_0" index="0" speed="6.51" length="9.03" shape="1395.20,689.60 1394.85,692.05 1393.80,693.80 1392.05,694.85 1389.60,695.20"/>
    </edge>
    <edge id=":B_1" function="internal">
        <lane id=":B_1_0" index="0" speed="9.26" length="19.35" shape="1398.40,689.60 1399.15,694.85 1401.40,698.60 1405.15,700.85 1410.40,701.60"/>
    </edge>
    <edge id=":B_2" function="internal">
        <lane id=":B_2_0" index="0" speed="6.51" length="9.03" shape="1410.40,695.20 1407.95,694.85 1406.20,693.80 1405.15,692.05 1404.80,689.60"/>
    </edge>
    <edge id=":B_3" function="internal">
        <lane id=":B_3_0" index="0" speed="13.89" length="20.80" shape="1410.40,695.20 1389.60,695.20"/>
        <lane id=":B_3_1" index="1" speed="13.89" length="20.80" shape="1410.40,698.40 1389.60,698.40"/>
    </edge>
    <edge id=":B_5" function="internal">
        <lane id=":B_5_0" index="0" speed="13.89" length="20.80" shape="1389.60,704.80 1410.40,704.80"/>
        <lane id=":B_5_1" index="1" speed="13.89" length="20.80" shape="1389.60,701.60 1410.40,701.60"/>
    </edge>
    <edge id=":B_7" function="internal">
        <lane id=":B_7_0" index="0" speed="9.26" length="5.01" shape="1389.60,701.60 1394.56,700.89"/>
    </edge>
    <edge id=":B_8" function="internal">
        <lane id=":B_8_0" index="0" speed="9.26" length="14.34" shape="1394.56,700.89 1394.85,700.85 1398.60,698.60 1400.85,694.85 1401.60,689.60"/>
    </edge>
    <edge id=":C_0" function="internal">
        <lane id=":C_0_0" index="0" speed="6.51" length="9.03" shape="1495.20,689.60 1494.85,692.05 1493.80,693.80 1492.05,694.85 1489.60,695.20"/>
    </edge>
    <edge id=":C_1" function="internal">
        <lane id=":C_1_0" index="0" speed="9.26" length="19.35" shape="1498.40,689.60 1499.15,694.85 1501.40,698.60 1505.15,700.85 1510.40,701.60"/>
    </edge>
    <edge id=":C_2" function="internal">
        <lane id=":C_2_0" index="0" speed="6.51" length="9.03" shape="1510.40,695.20 1507.95,694.85 1506.20,693.80 1505.15,692.05 1504.80,689.60"/>
    </edge>
    <edge id=":C_3" function="internal">
        <lane id=":C_3_0" index="0" speed="13.89" length="20.80" shape="1510.40,695.20 1489.60,695.20"/>
        <lane id=":C_3_1" index="1" speed="13.89" length="20.80" shape="1510.40,698.40 1489.60,698.40"/>
    </edge>
    <edge id=":C_5" function="internal">
        <lane id=":C_5_0" index="0" speed="13.89" length="20.80" shape="1489.60,704.80 1510.40,704.80"/>
        <lane id=":C_5_1" index="1" speed="13.89" length="20.80" shape="1489.60,701.60 1510.40,701.60"/>
    </edge>
    <edge id=":C_7" function="internal">
        <lane id=":C_7_0" index="0" speed="9.26" length="5.01" shape="1489.60,701.60 1494.56,700.89"/>
    </edge>
    <edge id=":C_8" function="internal">
        <lane id=":C_8_0" index="0" speed="9.26" length="14.34" shape="1494.56,700.89 1494.85,700.85 1498.60,698.60 1500.85,694.85 1501.60,689.60"/>
    </edge>
    <edge id=":D_0" function="internal">
        <lane id=":D_0_0" index="0" speed="6.51" length="9.03" shape="1495.20,589.60 1494.85,592.05 1493.80,593.80 1492.05,594.85 1489.60,595.20"/>
    </edge>
    <edge id=":D_1" function="internal">
        <lane id=":D_1_0" index="0" speed="13.89" length="20.80" shape="1495.20,589.60 1495.20,610.40"/>
        <lane id=":D_1_1" index="1" speed="13.89" length="20.80" shape="1498.40,589.60 1498.40,610.40"/>
    </edge>
    <edge id=":D_3" function="internal">
        <lane id=":D_3_0" index="0" speed="9.26" length="5.01" shape="1498.40,589.60 1499.11,594.56"/>
    </edge>
    <edge id=":D_16" function="internal">
        <lane id=":D_16_0" index="0" speed="9.26" length="14.34" shape="1499.11,594.56 1499.15,594.85 1501.40,598.60 1505.15,600.85 1510.40,601.60"/>
    </edge>
    <edge id=":D_4" function="internal">
        <lane id=":D_4_0" index="0" speed="6.51" length="9.03" shape="1510.40,595.20 1507.95,594.85 1506.20,593.80 1505.15,592.05 1504.80,589.60"/>
    </edge>
    <edge id=":D_5" function="internal">
        <lane id=":D_5_0" index="0" speed="13.89" length="20.80" shape="1510.40,595.20 1489.60,595.20"/>
        <lane id=":D_5_1" index="1" speed="13.89" length="20.80" shape="1510.40,598.40 1489.60,598.40"/>
    </edge>
    <edge id=":D_7" function="internal">
        <lane id=":D_7_0" index="0" speed="9.26" length="5.01" shape="1510.40,598.40 1505.44,599.11"/>
    </edge>
    <edge id=":D_17" function="internal">
        <lane id=":D_17_0" index="0" speed="9.26" length="14.34" shape="1505.44,599.11 1505.15,599.15 1501.40,601.40 1499.15,605.15 1498.40,610.40"/>
    </edge>
    <edge id=":D_8" function="internal">
        <lane id=":D_8_0" index="0" speed="6.51" length="9.03" shape="1504.80,610.40 1505.15,607.95 1506.20,606.20 1507.95,605.15 1510.40,604.80"/>
    </edge>
    <edge id=":D_9" function="internal">
        <lane id=":D_9_0" index="0" speed="13.89" length="20.80" shape="1504.80,610.40 1504.80,589.60"/>
        <lane id=":D_9_1" index="1" speed="13.89" length="20.80" shape="1501.60,610.40 1501.60,589.60"/>
    </edge>
    <edge id=":D_11" function="internal">
        <lane id=":D_11_0" index="0" speed="9.26" length="5.01" shape="1501.60,610.40 1500.89,605.44"/>
    </edge>
    <edge id=":D_18" function="internal">
        <lane id=":D_18_0" index="0" speed="9.26" length="14.34" shape="1500.89,605.44 1500.85,605.15 1498.60,601.40 1494.85,599.15 1489.60,598.40"/>
    </edge>
    <edge id=":D_12" function="internal">
        <lane id=":D_12_0" index="0" speed="6.51" length="9.03" shape="1489.60,604.80 1492.05,605.15 1493.80,606.20 1494.85,607.95 1495.20,610.40"/>
    </edge>
    <edge id=":D_13" function="internal">
        <lane id=":D_13_0" index="0" speed="13.89" length="20.80" shape="1489.60,604.80 1510.40,604.80"/>
        <lane id=":D_13_1" index="1" speed="13.89" length="20.80" shape="1489.60,601.60 1510.40,601.60"/>
    </edge>
    <edge id=":D_15" function="internal">
        <lane id=":D_15_0" index="0" speed="9.26" length="5.01" shape="1489.60,601.60 1494.56,600.89"/>
    </edge>
    <edge id=":D_19" function="internal">
        <lane id=":D_19_0" index="0" speed="9.26" length="14.34" shape="1494.56,600.89 1494.85,600.85 1498.60,598.60 1500.85,594.85 1501.60,589.60"/>
    </edge>
    <edge id=":E_0" function="internal">
        <lane id=":E_0_0" index="0" speed="6.51" length="9.03" shape="1495.20,489.60 1494.85,492.05 1493.80,493.80 1492.05,494.85 1489.60,495.20"/>
    </edge>
    <edge id=":E_1" function="internal">
        <lane id=":E_1_0" index="0" speed="13.89" length="20.80" shape="1495.20,489.60 1495.20,510.40"/>
        <lane id=":E_1_1" index="1" speed="13.89" length="20.80" shape="1498.40,489.60 1498.40,510.40"/>
    </edge>
    <edge id=":E_3" function="internal">
        <lane id=":E_3_0" index="0" speed="9.26" length="5.01" shape="1498.40,489.60 1499.11,494.56"/>
    </edge>
    <edge id=":E_16" function="internal">
        <lane id=":E_16_0" index="0" speed="9.26" length="14.34" shape="1499.11,494.56 1499.15,494.85 1501.40,498.60 1505.15,500.85 1510.40,501.60"/>
    </edge>
    <edge id=":E_4" function="internal">
        <lane id=":E_4_0" index="0" speed="6.51" length="9.03" shape="1510.40,495.20 1507.95,494.85 1506.20,493.80 1505.15,492.05 1504.80,489.60"/>
    </edge>
    <edge id=":E_5" function="internal">
        <lane id=":E_5_0" index="0" speed="13.89" length="20.80" shape="1510.40,495.20 1489.60,495.20"/>
        <lane id=":E_5_1" index="1" speed="13.89" length="20.80" shape="1510.40,498.40 1489.60,498.40"/>
    </edge>
    <edge id=":E_7" function="internal">
        <lane id=":E_7_0" index="0" speed="9.26" length="5.01" shape="1510.40,498.40 1505.44,499.11"/>
    </edge>
    <edge id=":E_17" function="internal">
        <lane id=":E_17_0" index="0" speed="9.26" length="14.34" shape="1505.44,499.11 1505.15,499.15 1501.40,501.40 1499.15,505.15 1498.40,510.40"/>
    </edge>
    <edge id=":E_8" function="internal">
        <lane id=":E_8_0" index="0" speed="6.51" length="9.03" shape="1504.80,510.40 1505.15,507.95 1506.20,506.20 1507.95,505.15 1510.40,504.80"/>
    </edge>
    <edge id=":E_9" function="internal">
        <lane id=":E_9_0" index="0" speed="13.89" length="20.80" shape="1504.80,510.40 1504.80,489.60"/>
        <lane id=":E_9_1" index="1" speed="13.89" length="20.80" shape="1501.60,510.40 1501.60,489.60"/>
    </edge>
    <edge id=":E_11" function="internal">
        <lane id=":E_11_0" index="0" speed="9.26" length="5.01" shape="1501.60,510.40 1500.89,505.44"/>
    </edge>
    <edge id=":E_18" function="internal">
        <lane id=":E_18_0" index="0" speed="9.26" length="14.34" shape="1500.89,505.44 1500.85,505.15 1498.60,501.40 1494.85,499.15 1489.60,498.40"/>
    </edge>
    <edge id=":E_12" function="internal">
        <lane id=":E_12_0" index="0" speed="6.51" length="9.03" shape="1489.60,504.80 1492.05,505.15 1493.80,506.20 1494.85,507.95 1495.20,510.40"/>
    </edge>
    <edge id=":E_13" function="internal">
        <lane id=":E_13_0" index="0" speed="13.89" length="20.80" shape="1489.60,504.80 1510.40,504.80"/>
        <lane id=":E_13_1" index="1" speed="13.89" length="20.80" shape="1489.60,501.60 1510.40,501.60"/>
    </edge>
    <edge id=":E_15" function="internal">
        <lane id=":E_15_0" index="0" speed="9.26" length="5.01" shape="1489.60,501.60 1494.56,500.89"/>
    </edge>
    <edge id=":E_19" function="internal">
        <lane id=":E_19_0" index="0" speed="9.26" length="14.34" shape="1494.56,500.89 1494.85,500.85 1498.60,498.60 1500.85,494.85 1501.60,489.60"/>
    </edge>
    <edge id=":F_0" function="internal">
        <lane id=":F_0_0" index="0" speed="6.51" length="9.03" shape="1395.20,489.60 1394.85,492.05 1393.80,493.80 1392.05,494.85 1389.60,495.20"/>
    </edge>
    <edge id=":F_1" function="internal">
        <lane id=":F_1_0" index="0" speed="13.89" length="20.80" shape="1395.20,489.60 1395.20,510.40"/>
        <lane id=":F_1_1" index="1" speed="13.89" length="20.80" shape="1398.40,489.60 1398.40,510.40"/>
    </edge>
    <edge id=":F_3" function="internal">
        <lane id=":F_3_0" index="0" speed="9.26" length="5.01" shape="1398.40,489.60 1399.11,494.56"/>
    </edge>
    <edge id=":F_16" function="internal">
        <lane id=":F_16_0" index="0" speed="9.26" length="14.34" shape="1399.11,494.56 1399.15,494.85 1401.40,498.60 1405.15,500.85 1410.40,501.60"/>
    </edge>
    <edge id=":F_4" function="internal">
        <lane id=":F_4_0" index="0" speed="6.51" length="9.03" shape="1410.40,495.20 1407.95,494.85 1406.20,493.80 1405.15,492.05 1404.80,489.60"/>
    </edge>
    <edge id=":F_5" function="internal">
        <lane id=":F_5_0" index="0" speed="13.89" length="20.80" shape="1410.40,495.20 1389.60,495.20"/>
        <lane id=":F_5_1" index="1" speed="13.89" length="20.80" shape="1410.40,498.40 1389.60,498.40"/>
    </edge>
    <edge id=":F_7" function="internal">
        <lane id=":F_7_0" index="0" speed="9.26" length="5.01" shape="1410.40,498.40 1405.44,499.11"/>
    </edge>
    <edge id=":F_17" function="internal">
        <lane id=":F_17_0" index="0" speed="9.26" length="14.34" shape="1405.44,499.11 1405.15,499.15 1401.40,501.40 1399.15,505.15 1398.40,510.40"/>
    </edge>
    <edge id=":F_8" function="internal">
        <lane id=":F_8_0" index="0" speed="6.51" length="9.03" shape="1404.80,510.40 1405.15,507.95 1406.20,506.20 1407.95,505.15 1410.40,504.80"/>
    </edge>
    <edge id=":F_9" function="internal">
        <lane id=":F_9_0" index="0" speed="13.89" length="20.80" shape="1404.80,510.40 1404.80,489.60"/>
        <lane id=":F_9_1" index="1" speed="13.89" length="20.80" shape="1401.60,510.40 1401.60,489.60"/>
    </edge>
    <edge id=":F_11" function="internal">
        <lane id=":F_11_0" index="0" speed="9.26" length="5.01" shape="1401.60,510.40 1400.89,505.44"/>
    </edge>
    <edge id=":F_18" function="internal">
        <lane id=":F_18_0" index="0" speed="9.26" length="14.34" shape="1400.89,505.44 1400.85,505.15 1398.60,501.40 1394.85,499.15 1389.60,498.40"/>
    </edge>
    <edge id=":F_12" function="internal">
        <lane id=":F_12_0" index="0" speed="6.51" length="9.03" shape="1389.60,504.80 1392.05,505.15 1393.80,506.20 1394.85,507.95 1395.20,510.40"/>
    </edge>
    <edge id=":F_13" function="internal">
        <lane id=":F_13_0" index="0" speed="13.89" length="20.80" shape="1389.60,504.80 1410.40,504.80"/>
        <lane id=":F_13_1" index="1" speed="13.89" length="20.80" shape="1389.60,501.60 1410.40,501.60"/>
    </edge>
    <edge id=":F_15" function="internal">
        <lane id=":F_15_0" index="0" speed="9.26" length="5.01" shape="1389.60,501.60 1394.56,500.89"/>
    </edge>
    <edge id=":F_19" function="internal">
        <lane id=":F_19_0" index="0" speed="9.26" length="14.34" shape="1394.56,500.89 1394.85,500.85 1398.60,498.60 1400.85,494.85 1401.60,489.60"/>
    </edge>
    <edge id=":G_0" function="internal">
        <lane id=":G_0_0" index="0" speed="13.89" length="20.80" shape="1295.20,489.60 1295.20,510.40"/>
        <lane id=":G_0_1" index="1" speed="13.89" length="20.80" shape="1298.40,489.60 1298.40,510.40"/>
    </edge>
    <edge id=":G_2" function="internal">
        <lane id=":G_2_0" index="0" speed="9.26" length="5.01" shape="1298.40,489.60 1299.11,494.56"/>
    </edge>
    <edge id=":G_8" function="internal">
        <lane id=":G_8_0" index="0" speed="9.26" length="14.34" shape="1299.11,494.56 1299.15,494.85 1301.40,498.60 1305.15,500.85 1310.40,501.60"/>
    </edge>
    <edge id=":G_3" function="internal">
        <lane id=":G_3_0" index="0" speed="6.51" length="9.03" shape="1310.40,495.20 1307.95,494.85 1306.20,493.80 1305.15,492.05 1304.80,489.60"/>
    </edge>
    <edge id=":G_4" function="internal">
        <lane id=":G_4_0" index="0" speed="9.26" length="19.35" shape="1310.40,498.40 1305.15,499.15 1301.40,501.40 1299.15,505.15 1298.40,510.40"/>
    </edge>
    <edge id=":G_5" function="internal">
        <lane id=":G_5_0" index="0" speed="6.51" length="9.03" shape="1304.80,510.40 1305.15,507.95 1306.20,506.20 1307.95,505.15 1310.40,504.80"/>
    </edge>
    <edge id=":G_6" function="internal">
        <lane id=":G_6_0" index="0" speed="13.89" length="20.80" shape="1304.80,510.40 1304.80,489.60"/>
        <lane id=":G_6_1" index="1" speed="13.89" length="20.80" shape="1301.60,510.40 1301.60,489.60"/>
    </edge>
    <edge id=":H_0" function="internal">
        <lane id=":H_0_0" index="0" speed="13.89" length="20.80" shape="1295.20,589.60 1295.20,610.40"/>
        <lane id=":H_0_1" index="1" speed="13.89" length="20.80" shape="1298.40,589.60 1298.40,610.40"/>
    </edge>
    <edge id=":H_2" function="internal">
        <lane id=":H_2_0" index="0" speed="9.26" length="5.01" shape="1298.40,589.60 1299.11,594.56"/>
    </edge>
    <edge id=":H_8" function="internal">
        <lane id=":H_8_0" index="0" speed="9.26" length="14.34" shape="1299.11,594.56 1299.15,594.85 1301.40,598.60 1305.15,600.85 1310.40,601.60"/>
    </edge>
    <edge id=":H_3" function="internal">
        <lane id=":H_3_0" index="0" speed="6.51" length="9.03" shape="1310.40,595.20 1307.95,594.85 1306.20,593.80 1305.15,592.05 1304.80,589.60"/>
    </edge>
    <edge id=":H_4" function="internal">
        <lane id=":H_4_0" index="0" speed="9.26" length="19.35" shape="1310.40,598.40 1305.15,599.15 1301.40,601.40 1299.15,605.15 1298.40,610.40"/>
    </edge>
    <edge id=":H_5" function="internal">
        <lane id=":H_5_0" index="0" speed="6.51" length="9.03" shape="1304.80,610.40 1305.15,607.95 1306.20,606.20 1307.95,605.15 1310.40,604.80"/>
    </edge>
    <edge id=":H_6" function="internal">
        <lane id=":H_6_0" index="0" speed="13.89" length="20.80" shape="1304.80,610.40 1304.80,589.60"/>
        <lane id=":H_6_1" index="1" speed="13.89" length="20.80" shape="1301.60,610.40 1301.60,589.60"/>
    </edge>
    <edge id=":I_0" function="internal">
        <lane id=":I_0_0" index="0" speed="6.51" length="9.03" shape="1395.20,589.60 1394.85,592.05 1393.80,593.80 1392.05,594.85 1389.60,595.20"/>
    </edge>
    <edge id=":I_1" function="internal">
        <lane id=":I_1_0" index="0" speed="13.89" length="20.80" shape="1395.20,589.60 1395.20,610.40"/>
        <lane id=":I_1_1" index="1" speed="13.89" length="20.80" shape="1398.40,589.60 1398.40,610.40"/>
    </edge>
    <edge id=":I_3" function="internal">
        <lane id=":I_3_0" index="0" speed="9.26" length="5.01" shape="1398.40,589.60 1399.11,594.56"/>
    </edge>
    <edge id=":I_16" function="internal">
        <lane id=":I_16_0" index="0" speed="9.26" length="14.34" shape="1399.11,594.56 1399.15,594.85 1401.40,598.60 1405.15,600.85 1410.40,601.60"/>
    </edge>
    <edge id=":I_4" function="internal">
        <lane id=":I_4_0" index="0" speed="6.51" length="9.03" shape="1410.40,595.20 1407.95,594.85 1406.20,593.80 1405.15,592.05 1404.80,589.60"/>
    </edge>
    <edge id=":I_5" function="internal">
        <lane id=":I_5_0" index="0" speed="13.89" length="20.80" shape="1410.40,595.20 1389.60,595.20"/>
        <lane id=":I_5_1" index="1" speed="13.89" length="20.80" shape="1410.40,598.40 1389.60,598.40"/>
    </edge>
    <edge id=":I_7" function="internal">
        <lane id=":I_7_0" index="0" speed="9.26" length="5.01" shape="1410.40,598.40 1405.44,599.11"/>
    </edge>
    <edge id=":I_17" function="internal">
        <lane id=":I_17_0" index="0" speed="9.26" length="14.34" shape="1405.44,599.11 1405.15,599.15 1401.40,601.40 1399.15,605.15 1398.40,610.40"/>
    </edge>
    <edge id=":I_8" function="internal">
        <lane id=":I_8_0" index="0" speed="6.51" length="9.03" shape="1404.80,610.40 1405.15,607.95 1406.20,606.20 1407.95,605.15 1410.40,604.80"/>
    </edge>
    <edge id=":I_9" function="internal">
        <lane id=":I_9_0" index="0" speed="13.89" length="20.80" shape="1404.80,610.40 1404.80,589.60"/>
        <lane id=":I_9_1" index="1" speed="13.89" length="20.80" shape="1401.60,610.40 1401.60,589.60"/>
    </edge>
    <edge id=":I_11" function="internal">
        <lane id=":I_11_0" index="0" speed="9.26" length="5.01" shape="1401.60,610.40 1400.89,605.44"/>
    </edge>
    <edge id=":I_18" function="internal">
        <lane id=":I_18_0" index="0" speed="9.26" length="14.34" shape="1400.89,605.44 1400.85,605.15 1398.60,601.40 1394.85,599.15 1389.60,598.40"/>
    </edge>
    <edge id=":I_12" function="internal">
        <lane id=":I_12_0" index="0" speed="6.51" length="9.03" shape="1389.60,604.80 1392.05,605.15 1393.80,606.20 1394.85,607.95 1395.20,610.40"/>
    </edge>
    <edge id=":I_13" function="internal">
        <lane id=":I_13_0" index="0" speed="13.89" length="20.80" shape="1389.60,604.80 1410.40,604.80"/>
        <lane id=":I_13_1" index="1" speed="13.89" length="20.80" shape="1389.60,601.60 1410.40,601.60"/>
    </edge>
    <edge id=":I_15" function="internal">
        <lane id=":I_15_0" index="0" speed="9.26" length="5.01" shape="1389.60,601.60 1394.56,600.89"/>
    </edge>
    <edge id=":I_19" function="internal">
        <lane id=":I_19_0" index="0" speed="9.26" length="14.34" shape="1394.56,600.89 1394.85,600.85 1398.60,598.60 1400.85,594.85 1401.60,589.60"/>
    </edge>
    <edge id=":J0_0" function="internal">
        <lane id=":J0_0_0" index="0" speed="3.90" length="2.58" shape="1595.20,693.60 1595.10,694.30 1594.80,694.80 1594.30,695.10 1593.60,695.20"/>
        <lane id=":J0_0_1" index="1" speed="6.08" length="7.74" shape="1598.40,693.60 1598.10,695.70 1597.20,697.20 1595.70,698.10 1593.60,698.40"/>
    </edge>
    <edge id=":J0_2" function="internal">
        <lane id=":J0_2_0" index="0" speed="8.96" length="18.06" shape="1593.60,704.80 1598.50,704.10 1602.00,702.00 1604.10,698.50 1604.80,693.60"/>
        <lane id=":J0_2_1" index="1" speed="7.66" length="12.90" shape="1593.60,701.60 1597.10,701.10 1599.60,699.60 1601.10,697.10 1601.60,693.60"/>
    </edge>
    <edge id=":J1_0" function="internal">
        <lane id=":J1_0_0" index="0" speed="6.51" length="9.03" shape="1595.20,589.60 1594.85,592.05 1593.80,593.80 1592.05,594.85 1589.60,595.20"/>
    </edge>
    <edge id=":J1_1" function="internal">
        <lane id=":J1_1_0" index="0" speed="13.89" length="20.80" shape="1595.20,589.60 1595.20,610.40"/>
        <lane id=":J1_1_1" index="1" speed="13.89" length="20.80" shape="1598.40,589.60 1598.40,610.40"/>
    </edge>
    <edge id=":J1_3" function="internal">
        <lane id=":J1_3_0" index="0" speed="13.89" length="20.80" shape="1604.80,610.40 1604.80,589.60"/>
        <lane id=":J1_3_1" index="1" speed="13.89" length="20.80" shape="1601.60,610.40 1601.60,589.60"/>
    </edge>
    <edge id=":J1_5" function="internal">
        <lane id=":J1_5_0" index="0" speed="9.26" length="5.01" shape="1601.60,610.40 1600.89,605.44"/>
    </edge>
    <edge id=":J1_8" function="internal">
        <lane id=":J1_8_0" index="0" speed="9.26" length="14.34" shape="1600.89,605.44 1600.85,605.15 1598.60,601.40 1594.85,599.15 1589.60,598.40"/>
    </edge>
    <edge id=":J1_6" function="internal">
        <lane id=":J1_6_0" index="0" speed="6.51" length="9.03" shape="1589.60,604.80 1592.05,605.15 1593.80,606.20 1594.85,607.95 1595.20,610.40"/>
    </edge>
    <edge id=":J1_7" function="internal">
        <lane id=":J1_7_0" index="0" speed="9.26" length="19.35" shape="1589.60,601.60 1594.85,600.85 1598.60,598.60 1600.85,594.85 1601.60,589.60"/>
    </edge>
    <edge id=":J2_0" function="internal">
        <lane id=":J2_0_0" index="0" speed="6.51" length="9.03" shape="1595.20,489.60 1594.85,492.05 1593.80,493.80 1592.05,494.85 1589.60,495.20"/>
    </edge>
    <edge id=":J2_1" function="internal">
        <lane id=":J2_1_0" index="0" speed="13.89" length="20.80" shape="1595.20,489.60 1595.20,510.40"/>
        <lane id=":J2_1_1" index="1" speed="13.89" length="20.80" shape="1598.40,489.60 1598.40,510.40"/>
    </edge>
    <edge id=":J2_3" function="internal">
        <lane id=":J2_3_0" index="0" speed="13.89" length="20.80" shape="1604.80,510.40 1604.80,489.60"/>
        <lane id=":J2_3_1" index="1" speed="13.89" length="20.80" shape="1601.60,510.40 1601.60,489.60"/>
    </edge>
    <edge id=":J2_5" function="internal">
        <lane id=":J2_5_0" index="0" speed="9.26" length="5.01" shape="1601.60,510.40 1600.89,505.44"/>
    </edge>
    <edge id=":J2_8" function="internal">
        <lane id=":J2_8_0" index="0" speed="9.26" length="14.34" shape="1600.89,505.44 1600.85,505.15 1598.60,501.40 1594.85,499.15 1589.60,498.40"/>
    </edge>
    <edge id=":J2_6" function="internal">
        <lane id=":J2_6_0" index="0" speed="6.51" length="9.03" shape="1589.60,504.80 1592.05,505.15 1593.80,506.20 1594.85,507.95 1595.20,510.40"/>
    </edge>
    <edge id=":J2_7" function="internal">
        <lane id=":J2_7_0" index="0" speed="9.26" length="19.35" shape="1589.60,501.60 1594.85,500.85 1598.60,498.60 1600.85,494.85 1601.60,489.60"/>
    </edge>
    <edge id=":J3_0" function="internal">
        <lane id=":J3_0_0" index="0" speed="13.89" length="20.80" shape="1410.40,395.20 1389.60,395.20"/>
        <lane id=":J3_0_1" index="1" speed="13.89" length="20.80" shape="1410.40,398.40 1389.60,398.40"/>
    </edge>
    <edge id=":J3_2" function="internal">
        <lane id=":J3_2_0" index="0" speed="9.26" length="5.01" shape="1410.40,398.40 1405.44,399.11"/>
    </edge>
    <edge id=":J3_8" function="internal">
        <lane id=":J3_8_0" index="0" speed="9.26" length="14.34" shape="1405.44,399.11 1405.15,399.15 1401.40,401.40 1399.15,405.15 1398.40,410.40"/>
    </edge>
    <edge id=":J3_3" function="internal">
        <lane id=":J3_3_0" index="0" speed="6.51" length="9.03" shape="1404.80,410.40 1405.15,407.95 1406.20,406.20 1407.95,405.15 1410.40,404.80"/>
    </edge>
    <edge id=":J3_4" function="internal">
        <lane id=":J3_4_0" index="0" speed="9.26" length="19.35" shape="1401.60,410.40 1400.85,405.15 1398.60,401.40 1394.85,399.15 1389.60,398.40"/>
    </edge>
    <edge id=":J3_5" function="internal">
        <lane id=":J3_5_0" index="0" speed="6.51" length="9.03" shape="1389.60,404.80 1392.05,405.15 1393.80,406.20 1394.85,407.95 1395.20,410.40"/>
    </edge>
    <edge id=":J3_6" function="internal">
        <lane id=":J3_6_0" index="0" speed="13.89" length="20.80" shape="1389.60,404.80 1410.40,404.80"/>
        <lane id=":J3_6_1" index="1" speed="13.89" length="20.80" shape="1389.60,401.60 1410.40,401.60"/>
    </edge>
    <edge id=":J4_0" function="internal">
        <lane id=":J4_0_0" index="0" speed="13.89" length="20.80" shape="1510.40,395.20 1489.60,395.20"/>
        <lane id=":J4_0_1" index="1" speed="13.89" length="20.80" shape="1510.40,398.40 1489.60,398.40"/>
    </edge>
    <edge id=":J4_2" function="internal">
        <lane id=":J4_2_0" index="0" speed="9.26" length="5.01" shape="1510.40,398.40 1505.44,399.11"/>
    </edge>
    <edge id=":J4_8" function="internal">
        <lane id=":J4_8_0" index="0" speed="9.26" length="14.34" shape="1505.44,399.11 1505.15,399.15 1501.40,401.40 1499.15,405.15 1498.40,410.40"/>
    </edge>
    <edge id=":J4_3" function="internal">
        <lane id=":J4_3_0" index="0" speed="6.51" length="9.03" shape="1504.80,410.40 1505.15,407.95 1506.20,406.20 1507.95,405.15 1510.40,404.80"/>
    </edge>
    <edge id=":J4_4" function="internal">
        <lane id=":J4_4_0" index="0" speed="9.26" length="19.35" shape="1501.60,410.40 1500.85,405.15 1498.60,401.40 1494.85,399.15 1489.60,398.40"/>
    </edge>
    <edge id=":J4_5" function="internal">
        <lane id=":J4_5_0" index="0" speed="6.51" length="9.03" shape="1489.60,404.80 1492.05,405.15 1493.80,406.20 1494.85,407.95 1495.20,410.40"/>
    </edge>
    <edge id=":J4_6" function="internal">
        <lane id=":J4_6_0" index="0" speed="13.89" length="20.80" shape="1489.60,404.80 1510.40,404.80"/>
        <lane id=":J4_6_1" index="1" speed="13.89" length="20.80" shape="1489.60,401.60 1510.40,401.60"/>
    </edge>
    <edge id=":J5_0" function="internal">
        <lane id=":J5_0_0" index="0" speed="8.96" length="18.06" shape="1604.80,406.40 1604.10,401.50 1602.00,398.00 1598.50,395.90 1593.60,395.20"/>
        <lane id=":J5_0_1" index="1" speed="7.66" length="12.90" shape="1601.60,406.40 1601.10,402.90 1599.60,400.40 1597.10,398.90 1593.60,398.40"/>
    </edge>
    <edge id=":J5_2" function="internal">
        <lane id=":J5_2_0" index="0" speed="3.90" length="2.58" shape="1593.60,404.80 1594.30,404.90 1594.80,405.20 1595.10,405.70 1595.20,406.40"/>
        <lane id=":J5_2_1" index="1" speed="6.08" length="7.74" shape="1593.60,401.60 1595.70,401.90 1597.20,402.80 1598.10,404.30 1598.40,406.40"/>
    </edge>
    <edge id=":J6_0" function="internal">
        <lane id=":J6_0_0" index="0" speed="8.96" length="18.06" shape="1306.40,395.20 1301.50,395.90 1298.00,398.00 1295.90,401.50 1295.20,406.40"/>
        <lane id=":J6_0_1" index="1" speed="7.66" length="12.90" shape="1306.40,398.40 1302.90,398.90 1300.40,400.40 1298.90,402.90 1298.40,406.40"/>
    </edge>
    <edge id=":J6_2" function="internal">
        <lane id=":J6_2_0" index="0" speed="3.90" length="2.58" shape="1304.80,406.40 1304.90,405.70 1305.20,405.20 1305.70,404.90 1306.40,404.80"/>
        <lane id=":J6_2_1" index="1" speed="6.08" length="7.74" shape="1301.60,406.40 1301.90,404.30 1302.80,402.80 1304.30,401.90 1306.40,401.60"/>
    </edge>

    <edge id="-E0" from="J0" to="C" priority="-1">
        <lane id="-E0_0" index="0" speed="13.89" length="83.20" shape="1593.60,695.20 1510.40,695.20"/>
        <lane id="-E0_1" index="1" speed="13.89" length="83.20" shape="1593.60,698.40 1510.40,698.40"/>
    </edge>
    <edge id="-E1" from="J1" to="J0" priority="-1">
        <lane id="-E1_0" index="0" speed="13.89" length="83.20" shape="1595.20,610.40 1595.20,693.60"/>
        <lane id="-E1_1" index="1" speed="13.89" length="83.20" shape="1598.40,610.40 1598.40,693.60"/>
    </edge>
    <edge id="-E10" from="J6" to="J3" priority="-1">