<?xml version="1.0" encoding="UTF-8"?>

<!-- generated on 2024-12-02 17:52:43 by Eclipse SUMO netedit Version 1.14.1
-->

<routes xmlns:xsi="http://www.w3.org/2001/XMLSchema-instance" xsi:noNamespaceSchemaLocation="http://sumo.dlr.de/xsd/routes_file.xsd">
    <!-- Vehicles, persons and containers (sorted by depart) -->
    <flow id="flow_0" begin="0.00" from="eB_I" to="eI_F" end="5000.00" vehsPerHour="500.00"/>
    <flow id="flow_1" begin="0.00" from="eC_D" to="eD_E" end="5000.00" vehsPerHour="500.00"/>
    <flow id="flow_2" begin="0.00" from="eA_H" to="eH_G" end="5000.00" vehsPerHour="500.00"/>
</routes>
